Trecho_MT_AGF01I2.dss
New "Line.SMT_103015353" phases=3 bus1="3830321438424478.1.2.3" bus2="3832908438424010.1.2.3" linecode="1000076_3" length=0.29682 units=km
New "Line.SMT_103015363" phases=3 bus1="3833184838424067.1.2.3" bus2="3833191238424057.1.2.3" linecode="1000795_3" length=0.00102 units=km
New "Line.SMT_1048167" phases=3 bus1="3792495038472522F.1.2.3" bus2="3792524438472471.1.2.3" linecode="1000795_3" length=0.00714 units=km
New "Line.SMT_1048187" phases=3 bus1="3792457438471814.1.2.3" bus2="3792425838471493FL.1.2.3" linecode="1000795_3" length=0.03672 units=km
New "Line.SMT_112341240" phases=3 bus1="3833391638424105.1.2.3" bus2="3833184838424067.1.2.3" linecode="1000076_3" length=0.02346 units=km
New "Line.SMT_112670275" phases=3 bus1="3823998438434266.1.2.3" bus2="3823618738434038.1.2.3" linecode="1000212_3" length=0.04998 units=km
New "Line.SMT_114411043" phases=3 bus1="3807465438460215.1.2.3" bus2="3807286538459331.1.2.3" linecode="1000795_3" length=0.10200 units=km
New "Line.SMT_114510369" phases=3 bus1="3823230938453658.1.2.3" bus2="3823234438453649.1.2.3" linecode="1000795_3" length=0.00102 units=km
New "Line.SMT_114804613" phases=3 bus1="3808995438471126.1.2.3" bus2="3809725638471089.1.2.3" linecode="1000795_3" length=0.08262 units=km
New "Line.SMT_114916317" phases=3 bus1="3825340538462183.1.2.3" bus2="3825216638461804.1.2.3" linecode="1000079_3" length=0.04488 units=km
New "Line.SMT_115214280" phases=3 bus1="3792490538472530.1.2.3" bus2="3792495038472522.1.2.3" linecode="1000795_3" length=0.00102 units=km
New "Line.SMT_1153264" phases=3 bus1="3792524438472471.1.2.3" bus2="3792457438471814.1.2.3" linecode="1000795_3" length=0.07446 units=km
New "Line.SMT_117061395" phases=3 bus1="3807544038470691F.1.2.3" bus2="3807857238470801.1.2.3" linecode="1000795_3" length=0.03774 units=km
New "Line.SMT_117061411" phases=3 bus1="3807537838470693.1.2.3" bus2="3807544038470691.1.2.3" linecode="1000795_3" length=0.00102 units=km
New "Line.SMT_117677102" phases=3 bus1="3829758438458307F.1.2.3" bus2="3831787538456802.1.2.3" linecode="1000795_3" length=0.28560 units=km
New "Line.SMT_118269800" phases=3 bus1="3807853138468335.1.2.3" bus2="3807845638468351.1.2.3" linecode="1000795_3" length=0.00204 units=km
New "Line.SMT_122117085" phases=3 bus1="3818436538435285.1.2.3" bus2="3818430038435283.1.2.3" linecode="1000795_3" length=0.00102 units=km
New "Line.SMT_122147199" phases=3 bus1="3807064638458392.1.2.3" bus2="3806657138456413.1.2.3" linecode="1000795_3" length=0.22848 units=km
New "Line.SMT_123444103" phases=3 bus1="3822496438467357.1.2.3" bus2="3821749538467433.1.2.3" linecode="1000795_3" length=0.08466 units=km
New "Line.SMT_123444118" phases=3 bus1="3824651238464964.1.2.3" bus2="3824373838465059.1.2.3" linecode="1000795_3" length=0.03264 units=km
New "Line.SMT_123444132" phases=3 bus1="3824373838465059F.1.2.3" bus2="3824152538465219.1.2.3" linecode="1000795_3" length=0.03060 units=km
New "Line.SMT_123444158" phases=3 bus1="3823909738465314.1.2.3" bus2="3823641538465500.1.2.3" linecode="1000795_3" length=0.03672 units=km
New "Line.SMT_123444169" phases=3 bus1="3823641538465500.1.2.3" bus2="3823397438465618.1.2.3" linecode="1000795_3" length=0.03060 units=km
New "Line.SMT_123444216" phases=3 bus1="3822552138467311.1.2.3" bus2="3822630838468142.1.2.3" linecode="1000030_3" length=0.09486 units=km
New "Line.SMT_123444232" phases=3 bus1="3822552138467311.1.2.3" bus2="3822496438467357.1.2.3" linecode="1000795_3" length=0.00816 units=km
New "Line.SMT_123538693" phases=3 bus1="3823349238433911.1.2.3" bus2="3823347738433917.1.2.3" linecode="1000795_3" length=0.00102 units=km
New "Line.SMT_126655958" phases=3 bus1="3813437938425591.1.2.3" bus2="3813564238425600.1.2.3" linecode="1000795_3" length=0.01428 units=km
New "Line.SMT_126655967" phases=3 bus1="3813368738425586F.1.2.3" bus2="3813361438425579.1.2.3" linecode="1000795_3" length=0.00102 units=km
New "Line.SMT_137075741" phases=3 bus1="3808624738471984F.1.2.3" bus2="3808620838472105.1.2.3" linecode="1000795_3" length=0.01428 units=km
New "Line.SMT_137075763" phases=3 bus1="3808989338471906.1.2.3" bus2="3808624738471984.1.2.3" linecode="1000795_3" length=0.04284 units=km
New "Line.SMT_137075777" phases=3 bus1="3808949638471204.1.2.3" bus2="3808989338471906.1.2.3" linecode="1000795_3" length=0.07956 units=km
New "Line.SMT_137075788" phases=3 bus1="3808995438471126.1.2.3" bus2="3808949638471204.1.2.3" linecode="1000795_3" length=0.01020 units=km
New "Line.SMT_137318244" phases=3 bus1="3807845638468351F.1.2.3" bus2="3807826338468385.1.2.3" linecode="1000795_3" length=0.00408 units=km
New "Line.SMT_138153164" phases=3 bus1="3822561938422934F.1.2.3" bus2="3822524938422940.1.2.3" linecode="1000795_3" length=0.00408 units=km
New "Line.SMT_138153176" phases=3 bus1="3823352238424592F.1.2.3" bus2="3823542638424463.1.2.3" linecode="1000795_3" length=0.02550 units=km
New "Line.SMT_138153196" phases=3 bus1="3823577938424261.1.2.3" bus2="3822561938422934.1.2.3" linecode="1000795_3" length=0.19176 units=km
New "Line.SMT_138153208" phases=3 bus1="3823542638424463.1.2.3" bus2="3823543938424456.1.2.3" linecode="1000795_3" length=0.00102 units=km
New "Line.SMT_138153220" phases=3 bus1="3823543938424456F.1.2.3" bus2="3823577938424261.1.2.3" linecode="1000795_3" length=0.02244 units=km
New "Line.SMT_140128910" phases=3 bus1="3823589238454806F.1.2.3" bus2="3823601038454802.1.2.3" linecode="1000079_3" length=0.00102 units=km
New "Line.SMT_140128921" phases=3 bus1="3823713138455197.1.2.3" bus2="3823581238454808.1.2.3" linecode="1000079_3" length=0.04692 units=km
New "Line.SMT_140128936" phases=3 bus1="3823581238454808.1.2.3" bus2="3823589238454806.1.2.3" linecode="1000079_3" length=0.00102 units=km
New "Line.SMT_142487982" phases=3 bus1="3809654338436234F.1.2.3" bus2="3809641038436229.1.2.3" linecode="1000079_3" length=0.00204 units=km
New "Line.SMT_143217942" phases=3 bus1="3807910538448917.1.2.3" bus2="3806825538449055.1.2.3" linecode="1000079_3" length=0.12342 units=km
New "Line.SMT_144168342" phases=3 bus1="3829701338457121.1.2.3" bus2="3829924638456724.1.2.3" linecode="1000076_3" length=0.05202 units=km
New "Line.SMT_145223204" phases=3 bus1="3809476338437584.1.2.3" bus2="3809665938436236.1.2.3" linecode="1000079_3" length=0.15402 units=km
New "Line.SMT_145223219" phases=3 bus1="3809665938436236.1.2.3" bus2="3809654338436234.1.2.3" linecode="1000079_3" length=0.00102 units=km
New "Line.SMT_150909285" phases=3 bus1="3811641038424163.1.2.3" bus2="3811808938424078.1.2.3" linecode="1000079_3" length=0.02142 units=km
New "Line.SMT_151171867" phases=3 bus1="3805723138449467.1.2.3" bus2="3806825538449055.1.2.3" linecode="1000079_3" length=0.13770 units=km
New "Line.SMT_152424343" phases=3 bus1="3807260938459244F.1.2.3" bus2="3807134238459282.1.2.3" linecode="1000795_3" length=0.01530 units=km
New "Line.SMT_152424357" phases=3 bus1="3807286538459331.1.2.3" bus2="3807267238459242.1.2.3" linecode="1000795_3" length=0.01020 units=km
New "Line.SMT_152424367" phases=3 bus1="3807267238459242.1.2.3" bus2="3807260938459244.1.2.3" linecode="1000795_3" length=0.00102 units=km
New "Line.SMT_152741406" phases=3 bus1="3807497938460402.1.2.3" bus2="3807465438460215.1.2.3" linecode="1000795_3" length=0.02142 units=km
New "Line.SMT_152912859" phases=3 bus1="3791380538472620.1.2.3" bus2="3791353238472714.1.2.3" linecode="1000079_3" length=0.01122 units=km
New "Line.SMT_152912865" phases=3 bus1="3791323838473578F.1.2.3" bus2="3791341538473498.1.2.3" linecode="1000079_3" length=0.00918 units=km
New "Line.SMT_152912871" phases=3 bus1="3791353238472714.1.2.3" bus2="3791383038473467.1.2.3" linecode="1000079_3" length=0.08568 units=km
New "Line.SMT_153858340" phases=3 bus1="3811234138456911.1.2.3" bus2="3810496238459106.1.2.3" linecode="1000795_3" length=0.29784 units=km
New "Line.SMT_153929315" phases=3 bus1="3814281538427811F.1.2.3" bus2="3814285038427721.1.2.3" linecode="1000795_3" length=0.01020 units=km
New "Line.SMT_153929321" phases=3 bus1="3814297338428399.1.2.3" bus2="3814281538427811.1.2.3" linecode="1000795_3" length=0.06630 units=km
New "Line.SMT_153929327" phases=3 bus1="3814333138428993.1.2.3" bus2="3814297338428399.1.2.3" linecode="1000795_3" length=0.06732 units=km
New "Line.SMT_153929333" phases=3 bus1="3813811638429754.1.2.3" bus2="3814368538429917.1.2.3" linecode="1000795_3" length=0.06528 units=km
New "Line.SMT_153929339" phases=3 bus1="3813778538430014.1.2.3" bus2="3813769438429768.1.2.3" linecode="1000795_3" length=0.02754 units=km
New "Line.SMT_153929345" phases=3 bus1="3813686638430573.1.2.3" bus2="3813806638430339.1.2.3" linecode="1000795_3" length=0.02958 units=km
New "Line.SMT_153929351" phases=3 bus1="3813340338431233.1.2.3" bus2="3813523838430877.1.2.3" linecode="1000795_3" length=0.04590 units=km
New "Line.SMT_153929357" phases=3 bus1="3813227338431471.1.2.3" bus2="3813227338431422.1.2.3" linecode="1000795_3" length=0.00510 units=km
New "Line.SMT_153929363" phases=3 bus1="3812623438431398.1.2.3" bus2="3812895638431427.1.2.3" linecode="1000795_3" length=0.03060 units=km
New "Line.SMT_153929369" phases=3 bus1="3812895638431427.1.2.3" bus2="3813227338431471.1.2.3" linecode="1000795_3" length=0.03774 units=km
New "Line.SMT_153929375" phases=3 bus1="3813227338431422.1.2.3" bus2="3813340338431233.1.2.3" linecode="1000795_3" length=0.02448 units=km
New "Line.SMT_153929381" phases=3 bus1="3813523838430877.1.2.3" bus2="3813686638430573.1.2.3" linecode="1000795_3" length=0.03876 units=km
New "Line.SMT_153929393" phases=3 bus1="3813769438429768.1.2.3" bus2="3813811638429754.1.2.3" linecode="1000795_3" length=0.00510 units=km
New "Line.SMT_153929399" phases=3 bus1="3814355238429571.1.2.3" bus2="3814333138428993.1.2.3" linecode="1000795_3" length=0.06528 units=km
New "Line.SMT_154949898" phases=3 bus1="3807523638471224.1.2.3" bus2="3807733738471216.1.2.3" linecode="1000079_3" length=0.02346 units=km
New "Line.SMT_154949994" phases=3 bus1="3807733738471216F.1.2.3" bus2="3808995438471126.1.2.3" linecode="1000079_3" length=0.14280 units=km
New "Line.SMT_154950210" phases=3 bus1="3807793838467209.1.2.3" bus2="3807805038467209.1.2.3" linecode="1000795_3" length=0.00102 units=km
New "Line.SMT_156688272" phases=3 bus1="3808251838452063.1.2.3" bus2="3808555838452082.1.2.3" linecode="1000795_3" length=0.03468 units=km
New "Line.SMT_156688278" phases=3 bus1="3807586638452021.1.2.3" bus2="3807905138452042.1.2.3" linecode="1000795_3" length=0.03570 units=km
New "Line.SMT_156688284" phases=3 bus1="3806991638451983.1.2.3" bus2="3807226638452004.1.2.3" linecode="1000795_3" length=0.02652 units=km
New "Line.SMT_156688290" phases=3 bus1="3806497238451899.1.2.3" bus2="3806687638451947.1.2.3" linecode="1000795_3" length=0.02244 units=km
New "Line.SMT_156688296" phases=3 bus1="3806687638451947.1.2.3" bus2="3806991638451983.1.2.3" linecode="1000795_3" length=0.03468 units=km
New "Line.SMT_156688310" phases=3 bus1="3807226638452004.1.2.3" bus2="3807586638452021.1.2.3" linecode="1000795_3" length=0.04080 units=km
New "Line.SMT_156688316" phases=3 bus1="3807905138452042.1.2.3" bus2="3808251838452063.1.2.3" linecode="1000795_3" length=0.03876 units=km
New "Line.SMT_156688322" phases=3 bus1="3808835938452100.1.2.3" bus2="3809132138452111.1.2.3" linecode="1000795_3" length=0.03366 units=km
New "Line.SMT_157299163" phases=3 bus1="3825098638461343F.1.2.3" bus2="3825301738461122.1.2.3" linecode="1000795_3" length=0.03366 units=km
New "Line.SMT_157875661" phases=3 bus1="3805858138451945.1.2.3" bus2="3805910838451579F.1.2.3" linecode="1000079_3" length=0.04182 units=km
New "Line.SMT_157875667" phases=3 bus1="3805905538451373.1.2.3" bus2="3805910838451579.1.2.3" linecode="1000079_3" length=0.02346 units=km
New "Line.SMT_157875715" phases=3 bus1="3805752438449629.1.2.3" bus2="3805723138449467.1.2.3" linecode="1000079_3" length=0.01836 units=km
New "Line.SMT_157875721" phases=3 bus1="3805723138449467.1.2.3" bus2="3805700638449421.1.2.3" linecode="1000079_3" length=0.00612 units=km
New "Line.SMT_157875739" phases=3 bus1="3805590838448398.1.2.3" bus2="3805540238447991.1.2.3" linecode="1000079_3" length=0.04590 units=km
New "Line.SMT_157875745" phases=3 bus1="3805540238447991.1.2.3" bus2="3805505538447597.1.2.3" linecode="1000079_3" length=0.04488 units=km
New "Line.SMT_157875751" phases=3 bus1="3805505538447597.1.2.3" bus2="3805489838447344.1.2.3" linecode="1000079_3" length=0.02856 units=km
New "Line.SMT_157875757" phases=3 bus1="3805489838447344.1.2.3" bus2="3805436338447144.1.2.3" linecode="1000079_3" length=0.02346 units=km
New "Line.SMT_157875763" phases=3 bus1="3805436338447144.1.2.3" bus2="3805401738446862.1.2.3" linecode="1000079_3" length=0.03162 units=km
New "Line.SMT_157875769" phases=3 bus1="3805377238446697.1.2.3" bus2="3805373838446674.1.2.3" linecode="1000079_3" length=0.00306 units=km
New "Line.SMT_157875885" phases=3 bus1="3805891338451063.1.2.3" bus2="3805864638450776.1.2.3" linecode="1000079_3" length=0.03264 units=km
New "Line.SMT_158256338" phases=3 bus1="3820732738451881.1.2.3" bus2="3820456838451736.1.2.3" linecode="1000079_3" length=0.03468 units=km
New "Line.SMT_158256344" phases=3 bus1="3820732738451881.1.2.3" bus2="3820988238452013.1.2.3" linecode="1000079_3" length=0.03264 units=km
New "Line.SMT_158363193" phases=3 bus1="3792631138473909F.1.2.3" bus2="3792588838473388.1.2.3" linecode="1000079_3" length=0.05916 units=km
New "Line.SMT_158826763" phases=3 bus1="3808753138448807.1.2.3" bus2="3810330438449018.1.2.3" linecode="1000079_3" length=0.18360 units=km
New "Line.SMT_160089882" phases=3 bus1="3807986938463208.1.2.3" bus2="3807841538463290.1.2.3" linecode="1000079_3" length=0.01836 units=km
New "Line.SMT_160089930" phases=3 bus1="3807831038467568.1.2.3" bus2="3807815338467209.1.2.3" linecode="1000795_3" length=0.04080 units=km
New "Line.SMT_160089942" phases=3 bus1="3807815338467209.1.2.3" bus2="3807809538466464.1.2.3" linecode="1000795_3" length=0.08466 units=km
New "Line.SMT_160089954" phases=3 bus1="3807809538466464.1.2.3" bus2="3807811738465743.1.2.3" linecode="1000795_3" length=0.08160 units=km
New "Line.SMT_160089966" phases=3 bus1="3807811738465743.1.2.3" bus2="3807837238464711.1.2.3" linecode="1000795_3" length=0.11730 units=km
New "Line.SMT_160089978" phases=3 bus1="3807523638471224.1.2.3" bus2="3807537838470693.1.2.3" linecode="1000079_3" length=0.06018 units=km
New "Line.SMT_160089990" phases=3 bus1="3807537838470693.1.2.3" bus2="3807535038470413.1.2.3" linecode="1000079_3" length=0.03162 units=km
New "Line.SMT_160089996" phases=3 bus1="3807535038470413.1.2.3" bus2="3807668338469507.1.2.3" linecode="1000079_3" length=0.10404 units=km
New "Line.SMT_160090020" phases=3 bus1="3807668338469507.1.2.3" bus2="3807765538468828.1.2.3" linecode="1000079_3" length=0.07752 units=km
New "Line.SMT_160090026" phases=3 bus1="3807765538468828.1.2.3" bus2="3807844938468637.1.2.3" linecode="1000795_3" length=0.02346 units=km
New "Line.SMT_160090032" phases=3 bus1="3807844938468637.1.2.3" bus2="3807853138468335.1.2.3" linecode="1000795_3" length=0.03468 units=km
New "Line.SMT_160090044" phases=3 bus1="3807849438467941F.1.2.3" bus2="3807831038467568.1.2.3" linecode="1000795_3" length=0.04182 units=km
New "Line.SMT_160090342" phases=3 bus1="3807499438471438F.1.2.3" bus2="3807523638471224.1.2.3" linecode="1000079_3" length=0.02448 units=km
New "Line.SMT_160090354" phases=3 bus1="3807523638471224.1.2.3" bus2="3807509038471225.1.2.3" linecode="1000079_3" length=0.00204 units=km
New "Line.SMT_160090360" phases=3 bus1="3807509038471225F.1.2.3" bus2="3807477738471286.1.2.3" linecode="1000079_3" length=0.00816 units=km
New "Line.SMT_160090390" phases=3 bus1="3807843838464011.1.2.3" bus2="3807841538463290.1.2.3" linecode="1000795_3" length=0.08160 units=km
New "Line.SMT_160161449" phases=3 bus1="3823638238465513F.1.2.3" bus2="3823623238465541.1.2.3" linecode="1000795_3" length=0.00408 units=km
New "Line.SMT_160161455" phases=3 bus1="3823641538465500.1.2.3" bus2="3823638238465513.1.2.3" linecode="1000795_3" length=0.00102 units=km
New "Line.SMT_160161461" phases=3 bus1="3823623238465541.1.2.3" bus2="3823658738465849.1.2.3" linecode="1000795_3" length=0.03468 units=km
New "Line.SMT_163004618" phases=3 bus1="3832474238461633.1.2.3" bus2="3832725038461490.1.2.3" linecode="1000795_3" length=0.03264 units=km
New "Line.SMT_164315121" phases=3 bus1="3811169038449081F.1.2.3" bus2="3811187538449067.1.2.3" linecode="1000079_3" length=0.00306 units=km
New "Line.SMT_164315127" phases=3 bus1="3811206538449095.1.2.3" bus2="3811188638449096F.1.2.3" linecode="1000079_3" length=0.00204 units=km
New "Line.SMT_164315133" phases=3 bus1="3811206538449095.1.2.3" bus2="3811202738449079.1.2.3" linecode="1000079_3" length=0.00204 units=km
New "Line.SMT_164315149" phases=3 bus1="3811172038449096.1.2.3" bus2="3811169038449081.1.2.3" linecode="1000079_3" length=0.00204 units=km
New "Line.SMT_164315155" phases=3 bus1="3811172038449096.1.2.3" bus2="3811188638449096.1.2.3" linecode="1000079_3" length=0.00204 units=km
New "Line.SMT_164683598" phases=3 bus1="3811355538425147F.1.2.3" bus2="3811394238424942.1.2.3" linecode="1000079_3" length=0.02346 units=km
New "Line.SMT_164901442" phases=3 bus1="3806354038441962.1.2.3" bus2="3805774838442586.1.2.3" linecode="1000079_3" length=0.09588 units=km
New "Line.SMT_164901454" phases=3 bus1="3809380738438375.1.2.3" bus2="3809313138438768.1.2.3" linecode="1000795_3" length=0.04488 units=km
New "Line.SMT_164901889" phases=3 bus1="3809476338437584F.1.2.3" bus2="3809420438437973.1.2.3" linecode="1000079_3" length=0.04488 units=km
New "Line.SMT_164901907" phases=3 bus1="3809420438437973.1.2.3" bus2="3809380738438375.1.2.3" linecode="1000795_3" length=0.04590 units=km
New "Line.SMT_165381603" phases=3 bus1="3807998638463429.1.2.3" bus2="3807999138463438F.1.2.3" linecode="1000030_3" length=0.00102 units=km
New "Line.SMT_167655298" phases=3 bus1="3792588838473388.1.2.3" bus2="3792600738473392.1.2.3" linecode="1000215_3" length=0.00102 units=km
New "Line.SMT_167655304" phases=3 bus1="3792558638473033.1.2.3" bus2="3792529638472692.1.2.3" linecode="1000079_3" length=0.03876 units=km
New "Line.SMT_167655310" phases=3 bus1="3792727538473442.1.2.3" bus2="3793959838473336.1.2.3" linecode="1000286_3" length=0.13974 units=km
New "Line.SMT_167655340" phases=3 bus1="3793959838473336.1.2.3" bus2="3795048338473250.1.2.3" linecode="1000286_3" length=0.12342 units=km
New "Line.SMT_167655364" phases=3 bus1="3795048338473250.1.2.3" bus2="3795239138473316.1.2.3" linecode="1000286_3" length=0.02244 units=km
New "Line.SMT_167655370" phases=3 bus1="3795239138473316.1.2.3" bus2="3795306738474125.1.2.3" linecode="1000286_3" length=0.09180 units=km
New "Line.SMT_167655388" phases=3 bus1="3795306738474125.1.2.3" bus2="3795140238474136.1.2.3" linecode="1000286_3" length=0.01836 units=km
New "Line.SMT_167655400" phases=3 bus1="3795140238474136.1.2.3" bus2="3795226838474940.1.2.3" linecode="1000286_3" length=0.09180 units=km
New "Line.SMT_167655412" phases=3 bus1="3795226838474940.1.2.3" bus2="3795271938475632.1.2.3" linecode="1000286_3" length=0.07854 units=km
New "Line.SMT_167655424" phases=3 bus1="3795271938475632.1.2.3" bus2="3795491938475756.1.2.3" linecode="1000286_3" length=0.02856 units=km
New "Line.SMT_167655460" phases=3 bus1="3805181038474929.1.2.3" bus2="3807694438474704.1.2.3" linecode="1000286_3" length=0.28458 units=km
New "Line.SMT_167655520" phases=3 bus1="3792600738473392F.1.2.3" bus2="3792727538473442.1.2.3" linecode="1000286_3" length=0.01530 units=km
New "Line.SMT_168187849" phases=3 bus1="3809724938456185.1.2.3" bus2="3809726338456179.1.2.3" linecode="1000795_3" length=0.00102 units=km
New "Line.SMT_168187855" phases=3 bus1="3809737438456153.1.2.3" bus2="3809889738455388.1.2.3" linecode="1000795_3" length=0.08874 units=km
New "Line.SMT_168187867" phases=3 bus1="3809726338456179F.1.2.3" bus2="3809737438456153.1.2.3" linecode="1000795_3" length=0.00306 units=km
New "Line.SMT_168290588" phases=3 bus1="3821047438421889.1.2.3" bus2="3820673238422020.1.2.3" linecode="1000079_3" length=0.04488 units=km
New "Line.SMT_169668710" phases=3 bus1="3826091338464247.1.2.3" bus2="3826034938464087.1.2.3" linecode="1000079_3" length=0.01938 units=km
New "Line.SMT_169668722" phases=3 bus1="3826416838465282.1.2.3" bus2="3826421638465296.1.2.3" linecode="1000079_3" length=0.00204 units=km
New "Line.SMT_17115129" phases=3 bus1="3822372638452740.1.2.3" bus2="3821995338452547.1.2.3" linecode="1000079_3" length=0.04794 units=km
New "Line.SMT_172215733" phases=3 bus1="3807846338461877.1.2.3" bus2="3807848538461900F.1.2.3" linecode="1000030_3" length=0.00306 units=km
New "Line.SMT_172215739" phases=3 bus1="3807850638461923.1.2.3" bus2="3807848538461900.1.2.3" linecode="1000030_3" length=0.00306 units=km
New "Line.SMT_172215745" phases=3 bus1="3807825838461903F.1.2.3" bus2="3807846338461877.1.2.3" linecode="1000030_3" length=0.00510 units=km
New "Line.SMT_172215763" phases=3 bus1="3807846338461877.1.2.3" bus2="3807781538461649.1.2.3" linecode="1000795_3" length=0.02652 units=km
New "Line.SMT_178356735" phases=3 bus1="3808006438465168.1.2.3" bus2="3807999138463438.1.2.3" linecode="1000286_3" length=0.19584 units=km
New "Line.SMT_178356855" phases=3 bus1="3807791438470466.1.2.3" bus2="3807743438470854.1.2.3" linecode="1000286_3" length=0.04386 units=km
New "Line.SMT_178356939" phases=3 bus1="3807694438474704.1.2.3" bus2="3807953638474470.1.2.3" linecode="1000286_3" length=0.03978 units=km
New "Line.SMT_179881667" phases=3 bus1="3812613738436320.1.2.3" bus2="3813224038436445.1.2.3" linecode="1000212_3" length=0.07038 units=km
New "Line.SMT_179881673" phases=3 bus1="3813851338436525.1.2.3" bus2="3814066638436601.1.2.3" linecode="1000212_3" length=0.02550 units=km
New "Line.SMT_179881679" phases=3 bus1="3814066638436601.1.2.3" bus2="3814187938436617.1.2.3" linecode="1000069_3" length=0.01428 units=km
New "Line.SMT_181705423" phases=3 bus1="3807841538463290.1.2.3" bus2="3807837738463278F.1.2.3" linecode="1000079_3" length=0.00102 units=km
New "Line.SMT_190890814" phases=3 bus1="3807743438470854.1.2.3" bus2="3807745438471405.1.2.3" linecode="1000286_3" length=0.06222 units=km
New "Line.SMT_190890830" phases=3 bus1="3807953838467586.1.2.3" bus2="3807889238469677.1.2.3" linecode="1000286_3" length=0.23766 units=km
New "Line.SMT_191329256" phases=3 bus1="3818579638450724.1.2.3" bus2="3818574638450734.1.2.3" linecode="1000818_3" length=0.00102 units=km
New "Line.SMT_191329282" phases=3 bus1="3818574638450734F.1.2.3" bus2="3818488238450906.1.2.3" linecode="1000818_3" length=0.02142 units=km
New "Line.SMT_191329300" phases=3 bus1="3819616038451250F.1.2.3" bus2="3818874838450866.1.2.3" linecode="1000079_3" length=0.09384 units=km
New "Line.SMT_192590210" phases=3 bus1="3815316138436937.1.2.3" bus2="3816207838437190.1.2.3" linecode="1000027_3" length=0.10404 units=km
New "Line.SMT_192689608" phases=3 bus1="3812131738423995F.1.2.3" bus2="3812436138424010.1.2.3" linecode="1000079_3" length=0.03468 units=km
New "Line.SMT_193925651" phases=3 bus1="3809255538439038.1.2.3" bus2="3809313138438768.1.2.3" linecode="1000079_3" length=0.03162 units=km
New "Line.SMT_193925657" phases=3 bus1="3809075138439515.1.2.3" bus2="3806726938441561.1.2.3" linecode="1000079_3" length=0.35190 units=km
New "Line.SMT_193925898" phases=3 bus1="3805774838442586.1.2.3" bus2="3805444438443340.1.2.3" linecode="1000079_3" length=0.09282 units=km
New "Line.SMT_193925909" phases=3 bus1="3805444438443340.1.2.3" bus2="3805311938443959.1.2.3" linecode="1000079_3" length=0.07140 units=km
New "Line.SMT_193926192" phases=3 bus1="3804994038444978.1.2.3" bus2="3805302038444899.1.2.3" linecode="1000795_3" length=0.03570 units=km
New "Line.SMT_193926202" phases=3 bus1="3805372838446651.1.2.3" bus2="3805302038444899.1.2.3" linecode="1000079_3" length=0.19890 units=km
New "Line.SMT_193926292" phases=3 bus1="3806726938441561.1.2.3" bus2="3806354038441962.1.2.3" linecode="1000079_3" length=0.06222 units=km
New "Line.SMT_193926295" phases=3 bus1="3806354038441962.1.2.3" bus2="3806212538441787.1.2.3" linecode="1000795_3" length=0.02550 units=km
New "Line.SMT_193926328" phases=3 bus1="3812421738423791.1.2.3" bus2="3812436138424010.1.2.3" linecode="1000079_3" length=0.02448 units=km
New "Line.SMT_193926392" phases=3 bus1="3805700638449421F.1.2.3" bus2="3805673438449097.1.2.3" linecode="1000079_3" length=0.03672 units=km
New "Line.SMT_193926424" phases=3 bus1="3805302038444899.1.2.3" bus2="3805311938443959.1.2.3" linecode="1000079_3" length=0.10608 units=km
New "Line.SMT_195085761" phases=3 bus1="3825613638434550F.1.2.3" bus2="3825598738434526.1.2.3" linecode="1000212_3" length=0.00408 units=km
New "Line.SMT_195970179" phases=3 bus1="3819090638432916.1.2.3" bus2="3819083038432908.1.2.3" linecode="1000795_3" length=0.00102 units=km
New "Line.SMT_196303314" phases=3 bus1="3818823438438108.1.2.3" bus2="3818833238438101.1.2.3" linecode="1000795_3" length=0.00102 units=km
New "Line.SMT_196303320" phases=3 bus1="3818823438438108.1.2.3" bus2="3819487738438341.1.2.3" linecode="1000795_3" length=0.07956 units=km
New "Line.SMT_196303359" phases=3 bus1="3818833238438101F.1.2.3" bus2="3819060838437726.1.2.3" linecode="1000795_3" length=0.05202 units=km
New "Line.SMT_198275723" phases=3 bus1="3812667438449412F.1.2.3" bus2="3812632038449567.1.2.3" linecode="1000795_3" length=0.01836 units=km
New "Line.SMT_198275733" phases=3 bus1="3813194238449520.1.2.3" bus2="3812669438449404.1.2.3" linecode="1000079_3" length=0.06018 units=km
New "Line.SMT_198296984" phases=3 bus1="3810625538429949.1.2.3" bus2="3810665038429688.1.2.3" linecode="1000079_3" length=0.02958 units=km
New "Line.SMT_198465381" phases=3 bus1="3830755638461928F.1.2.3" bus2="3830783938461927.1.2.3" linecode="1000795_3" length=0.00306 units=km
New "Line.SMT_198465387" phases=3 bus1="3830741938461925.1.2.3" bus2="3830570438461972.1.2.3" linecode="1000795_3" length=0.02040 units=km
New "Line.SMT_198465393" phases=3 bus1="3830592738462076.1.2.3" bus2="3830570438461972.1.2.3" linecode="1000795_3" length=0.01224 units=km
New "Line.SMT_198465399" phases=3 bus1="3830879738462538.1.2.3" bus2="3830876138462532.1.2.3" linecode="1000818_3" length=0.00102 units=km
New "Line.SMT_198465405" phases=3 bus1="3830876138462532F.1.2.3" bus2="3830592738462076.1.2.3" linecode="1000795_3" length=0.06120 units=km
New "Line.SMT_198465482" phases=3 bus1="3829603938463215.1.2.3" bus2="3830879738462538.1.2.3" linecode="1000795_3" length=0.16422 units=km
New "Line.SMT_198479008" phases=3 bus1="3817176338452147.1.2.3" bus2="3817494438452217.1.2.3" linecode="1000795_3" length=0.03672 units=km
New "Line.SMT_199825812" phases=3 bus1="3807497938460402.1.2.3" bus2="3807591538460769.1.2.3" linecode="1000079_3" length=0.04284 units=km
New "Line.SMT_201897714" phases=1 bus1="3819569538422814.1" bus2="3819577238422814.1" linecode="1000795_1" length=0.00102 units=km
New "Line.SMT_201897735" phases=1 bus1="3819577238422814F.1" bus2="3819669338422818.1" linecode="1000795_1" length=0.01020 units=km
New "Line.SMT_201897747" phases=1 bus1="3819494138422299F.1" bus2="3819569538422814.1" linecode="1000795_1" length=0.05916 units=km
New "Line.SMT_2043553" phases=3 bus1="3810629338429955.1.2.3" bus2="3810654838430003.1.2.3" linecode="1000795_3" length=0.00612 units=km
New "Line.SMT_2067059" phases=3 bus1="3811641038424163.1.2.3" bus2="3811435338424679.1.2.3" linecode="1000079_3" length=0.06324 units=km
New "Line.SMT_2067061" phases=3 bus1="3811435338424679.1.2.3" bus2="3811448138424683.1.2.3" linecode="1000795_3" length=0.00102 units=km
New "Line.SMT_2067063" phases=3 bus1="3811448138424683F.1.2.3" bus2="3811489438424733.1.2.3" linecode="1000795_3" length=0.00714 units=km
New "Line.SMT_208095837" phases=3 bus1="3809075138439515.1.2.3" bus2="3809255538439038.1.2.3" linecode="1000079_3" length=0.05814 units=km
...
