Chave_MT_AGF01I2.dss
New "Line.CMT_FD51L0211" phases=3 bus1="3830755638461928.1.2.3" bus2="3830755638461928F.1.2.3" r1=0.001 r0=0.001 x1=0.0 x0=0.0 c1=0.0 c0=0.0  switch = T length=0.00100
New "Line.CMT_FD77L1000" phases=3 bus1="3834662738460550.1.2.3" bus2="3834662738460550F.1.2.3" r1=0.001 r0=0.001 x1=0.0 x0=0.0 c1=0.0 c0=0.0  switch = T length=0.00100
New "Line.CMT_FF24E1155" phases=3 bus1="3826506138454644.1.2.3" bus2="3826506138454644F.1.2.3" r1=0.001 r0=0.001 x1=0.0 x0=0.0 c1=0.0 c0=0.0  switch = T length=0.00100
New "Line.CMT_FF34E0585" phases=3 bus1="3792459938471805.1.2.3" bus2="3792459938471805F.1.2.3" r1=0.001 r0=0.001 x1=0.0 x0=0.0 c1=0.0 c0=0.0  switch = T length=0.00100
New "Line.CMT_FF61E1708" phases=3 bus1="3826134338464502.1.2.3" bus2="3826134338464502F.1.2.3" r1=0.001 r0=0.001 x1=0.0 x0=0.0 c1=0.0 c0=0.0  switch = T length=0.00100
New "Line.CMT_FF61E2081" phases=3 bus1="3825098638461343.1.2.3" bus2="3825098638461343F.1.2.3" r1=0.001 r0=0.001 x1=0.0 x0=0.0 c1=0.0 c0=0.0  switch = T length=0.00100
New "Line.CMT_FF61E2782" phases=3 bus1="3823718838455201.1.2.3" bus2="3823718838455201F.1.2.3" r1=0.001 r0=0.001 x1=0.0 x0=0.0 c1=0.0 c0=0.0  switch = T length=0.00100
New "Line.CMT_FF61E2828" phases=3 bus1="3823589238454806.1.2.3" bus2="3823589238454806F.1.2.3" r1=0.001 r0=0.001 x1=0.0 x0=0.0 c1=0.0 c0=0.0  switch = T length=0.00100
New "Line.CMT_FF61E2958" phases=3 bus1="3823234438453649.1.2.3" bus2="3823234438453649F.1.2.3" r1=0.001 r0=0.001 x1=0.0 x0=0.0 c1=0.0 c0=0.0  switch = T length=0.00100
New "Line.CMT_FF64E0005" phases=3 bus1="3824422038459243.1.2.3" bus2="3824422038459243F.1.2.3" r1=0.001 r0=0.001 x1=0.0 x0=0.0 c1=0.0 c0=0.0  switch = T length=0.00100
New "Line.CMT_FF90E1021" phases=3 bus1="3807260938459244.1.2.3" bus2="3807260938459244F.1.2.3" r1=0.001 r0=0.001 x1=0.0 x0=0.0 c1=0.0 c0=0.0  switch = T length=0.00100
New "Line.CMT_FF90E1843" phases=3 bus1="3805868038451944.1.2.3" bus2="3805868038451944F.1.2.3" r1=0.001 r0=0.001 x1=0.0 x0=0.0 c1=0.0 c0=0.0  switch = T length=0.00100
New "Line.CMT_FF90E4362" phases=3 bus1="3810441738431085.1.2.3" bus2="3810441738431085F.1.2.3" r1=0.001 r0=0.001 x1=0.0 x0=0.0 c1=0.0 c0=0.0  switch = T length=0.00100
New "Line.CMT_FF90E4431" phases=3 bus1="3810629338429955.1.2.3" bus2="3810629338429955F.1.2.3" r1=0.001 r0=0.001 x1=0.0 x0=0.0 c1=0.0 c0=0.0  switch = T length=0.00100
New "Line.CMT_FF90E5031" phases=3 bus1="3811400638424944.1.2.3" bus2="3811400638424944F.1.2.3" r1=0.001 r0=0.001 x1=0.0 x0=0.0 c1=0.0 c0=0.0  switch = T length=0.00100
New "Line.CMT_FF90E5064" phases=3 bus1="3811448138424683.1.2.3" bus2="3811448138424683F.1.2.3" r1=0.001 r0=0.001 x1=0.0 x0=0.0 c1=0.0 c0=0.0  switch = T length=0.00100
New "Line.CMT_FF97E0022" phases=3 bus1="3806581638454978.1.2.3" bus2="3806581638454978F.1.2.3" r1=0.001 r0=0.001 x1=0.0 x0=0.0 c1=0.0 c0=0.0  switch = T length=0.00100
New "Line.CMT_FF99E0295" phases=3 bus1="3813668038425615.1.2.3" bus2="3813668038425615F.1.2.3" r1=0.001 r0=0.001 x1=0.0 x0=0.0 c1=0.0 c0=0.0  switch = T length=0.00100
New "Line.CMT_FF99E0310" phases=3 bus1="3813799938425624.1.2.3" bus2="3813799938425624F.1.2.3" r1=0.001 r0=0.001 x1=0.0 x0=0.0 c1=0.0 c0=0.0  switch = T length=0.00100
New "Line.CMT_FG71L1039" phases=3 bus1="3807684238468360.1.2.3" bus2="3807684238468360F.1.2.3" r1=0.001 r0=0.001 x1=0.0 x0=0.0 c1=0.0 c0=0.0  switch = T length=0.00100
New "Line.CMT_FH94E0506" phases=3 bus1="3792495038472522.1.2.3" bus2="3792495038472522F.1.2.3" r1=0.001 r0=0.001 x1=0.0 x0=0.0 c1=0.0 c0=0.0  switch = T length=0.00100
New "Line.CMT_FH94E0546" phases=3 bus1="3792863538472507.1.2.3" bus2="3792863538472507F.1.2.3" r1=0.001 r0=0.001 x1=0.0 x0=0.0 c1=0.0 c0=0.0  switch = T length=0.00100
New "Line.CMT_FH94S2125" phases=3 bus1="3807733738471216.1.2.3" bus2="3807733738471216F.1.2.3" r1=0.001 r0=0.001 x1=0.0 x0=0.0 c1=0.0 c0=0.0  switch = T length=0.00100
New "Line.CMT_FI02E3347" phases=3 bus1="3820453538451745.1.2.3" bus2="3820453538451745F.1.2.3" r1=0.001 r0=0.001 x1=0.0 x0=0.0 c1=0.0 c0=0.0  switch = T length=0.00100
New "Line.CMT_FI02E3422" phases=3 bus1="3819878138451422.1.2.3" bus2="3819878138451422F.1.2.3" r1=0.001 r0=0.001 x1=0.0 x0=0.0 c1=0.0 c0=0.0  switch = T length=0.00100
New "Line.CMT_FI02E3585" phases=3 bus1="3818574638450734.1.2.3" bus2="3818574638450734F.1.2.3" r1=0.001 r0=0.001 x1=0.0 x0=0.0 c1=0.0 c0=0.0  switch = T length=0.00100
New "Line.CMT_FI02E3681" phases=3 bus1="3817712938450452.1.2.3" bus2="3817712938450452F.1.2.3" r1=0.001 r0=0.001 x1=0.0 x0=0.0 c1=0.0 c0=0.0  switch = T length=0.00100
New "Line.CMT_FI02E4262" phases=3 bus1="3812667438449412.1.2.3" bus2="3812667438449412F.1.2.3" r1=0.001 r0=0.001 x1=0.0 x0=0.0 c1=0.0 c0=0.0  switch = T length=0.00100
New "Line.CMT_FI02E4712" phases=3 bus1="3808640138448826.1.2.3" bus2="3808640138448826F.1.2.3" r1=0.001 r0=0.001 x1=0.0 x0=0.0 c1=0.0 c0=0.0  switch = T length=0.00100
...